[globalOptions]

# Set the input directory map in an absolute path. 
# - The input forcing and parameter directories will be relative to this.
inputDir  = /home/simon/projects/AquaCrop/AquaCrop_Py/Input

# set the output directory in an absolute path
outputDir = /home/simon/projects/AquaCrop/AquaCrop_Py/Output

# # Map of clone (must be provided in PCRaster maps)
# # - Spatial resolution and coverage are based on this map:
# #~ cloneMap = others/RhineMeuse/RhineMeuse30min.clone.map
# cloneMap    = others/Global/Global_CloneMap_30min.map

# # The area/landmask of interest:
# # If None, area/landmask is limited for cells with ldd value. 
# landmask = None

# # netcdf attributes for output files:
# institution = Department of Physical Geography, Utrecht University
# title       = PCR-GLOBWB 2 output (not coupled to MODFLOW)
# description = test version (by Edwin H. Sutanudjaja) 

startTime = 1958-01-01
endTime   = 2010-12-31
# Format: YYYY-MM-DD ; The current model runs on the daily time step.

# # spinning up options:
# maxSpinUpsInYears = 20
# minConvForSoilSto = 0.0
# minConvForGwatSto = 0.0
# minConvForChanSto = 0.0
# minConvForTotlSto = 0.0


[meteoOptions]

precipitationNC = Input/daily_precipitation_cru_era-interim_2000_to_2010_cropped.nc4
temperatureNC = Input/daily_temperature_cru_era-interim_2000_to_2010_cropped.nc4
refETPotFileNC = Input/daily_referencePotET_cru_era-interim_2000_to_2010_cropped.nc4

[soilOptions]

# TODO: work out which of these should be spatially explicit

# Calculate soil hydraulic properties (0: No, 1: Yes)
CalcSHP = 0

# Total thickness of soil profile (m)
zSoil = 2.3

# Total number of compartments
nComp = 12

# Total number of layers
nLayer = 1

# Thickness of soil surface skin evaporation layer (m)
EvapZsurf = 0.04

# Minimum thickness of full soil surface evaporation layer (m)
EvapZmin = 0.15

# Maximum thickness of full soil surface evaporation layer (m)
EvapZmax = 0.30

# Maximum soil evaporation coefficient
Kex = 1.1

# Shape factor describing reduction in soil evaporation
fevap = 4

# Proportional value of Wrel at which soil evaporation layer expands
fWrelExp = 0.4

# Maximum coefficient for soil evaporation reduction due to sheltering effect of withered canopy
fwcc = 50

# Adjust default value for readily evaporable water (0: No, 1: Yes)
AdjREW = 0

# Readily evaporable water (mm) (only used if adjusting)
REW = 9

# Adjust curve number for antecedent moisture content (0:No, 1:Yes)
AdjCN = 1

# Curve number
CN = 61

# Thickness of soil surface (m) used to calculate water content to adjust curve number
zCN = 0.3

# Thickness of soil surface (m) used to calculate water content for germination
zGerm = 0.3

# Depth of restrictive soil layer (set to negative value if not present)
zRes = -999

# Capillary rise shape factor
fshape_cr = 16
